power-flow-agent/results/ieee14/2026-09-21/gpt-5.6-sol/pfagent__v1/traces/18_case14-multistep-030-s0.transcript.txt
==============================================================================
TRANSCRIPT  pfagent  |  openrouter:openai/gpt-5.6-sol  |  case14  |  case14-multistep-030-s0  run 0
==============================================================================
date: 2026-09-21   seed: 0   difficulty: multistep   tool variant: v1

[system]   (hash 7da5e2a37ec4, from methods/pfagent/method.json prompt_files)
You are a power system power-flow analysis assistant. You help the user complete power system analysis tasks from natural-language requests.

## What you can do
You complete tasks by calling tool functions:
1. Load an IEEE standard test system (14, 30, 57, 118, 300 buses)
2. Run AC power flow
3. Modify the load at a bus and re-solve
4. Disconnect or reconnect a line and re-solve
5. Query the network status
6. Run an N-1 contingency analysis (disconnect branches one at a time and rank the worst cases)
7. Generate remedial-action suggestions (what-if load shedding or voltage adjustment) to reduce violation risk

## Key rules
- Never fabricate any numerical result. Every voltage, power, loss, or loading value must come from a tool return value.
- If a tool reports an error or a non-converged power flow, say so explicitly and do not report numbers for that state.
- If the request is ambiguous, state the interpretation you are using.
- Bus and line identifiers in the request are MATPOWER 1-based ids; pass them to the tools as given, unless the request itself states a different indexing convention for that identifier (e.g. "(0-based)"), in which case convert it to the MATPOWER 1-based id before calling any tool.
- After a network modification, re-solve before reporting any value.
- Always reply in English.

## Reply format
After each analysis, reply in this structure:
1. One-sentence summary
2. Key numbers (total load, total generation, total losses, voltage range) taken from the tool outputs
3. Violations, if any
4. Suggested next step

[user]
Load case14, set the active load at bus 14 to 17.2 MW, disconnect the line between bus 1 and bus 5, reconnect the line between bus 1 and bus 5, and finally run an N-1 contingency analysis ranked by min voltage and report the 8 worst outages.

--- round 1 ---
[assistant]   (844 in / 68 out tokens, 7.5 s)
(no text)
tool_call  load_case(case_name="case14")
[tool load_case]   (gate: not applied)
{"case_name": "case14", "n_buses": 14, "n_generators": 5, "n_lines": 20, "n_loads": 11, "total_load_mw": 271.9322468585065, "total_gen_capacity_mw": 772.4000000000001}

--- round 2 ---
[assistant]   (945 in / 55 out tokens, 7.9 s)
(no text)
tool_call  get_status()
[tool get_status]   (gate: not applied)
{"active_case": "case14", "network_info": {"case_name": "case14", "n_buses": 14, "n_generators": 5, "n_lines": 20, "n_loads": 11, "total_load_mw": 271.9322468585065, "total_gen_capacity_mw": 772.4000000000001}, "has_last_result": false}

--- round 3 ---
[assistant]   (1059 in / 56 out tokens, 7.1 s)
(no text)
tool_call  run_powerflow()
[tool run_powerflow]   (gate: pass)
{"case_name": "case14", "converged": true, "bus_voltages": [{"bus_id": 1, "vm_pu": 1.06, "va_deg": 0.0, "is_violation": true, "violation_type": "overvoltage"}, {"bus_id": 2, "vm_pu": 1.045, "va_deg": -5.373522845971019, "is_violation": false, "violation_type": null}, {"bus_id": 3, "vm_pu": 1.01, "va_deg": -13.744323334193314, "is_violation": false, "violation_type": null}, {"bus_id": 4, "vm_pu": 1.0173735767865733, "va_deg": -10.86907322281623, "is_violation": false, "violation_type": null}, {"bus_id": 5, "vm_pu": 1.019136444456198, "va_deg": -9.232795214178097, "is_violation": false, "violation_type": null}, {"bus_id": 6, "vm_pu": 1.07, "va_deg": -14.682125021039717, "is_violation": true, "violation_type": "overvoltage"}, {"bus_id": 7, "vm_pu": 1.061492779646327, "va_deg": -13.87473974188472, "is_violation": true, "violation_type": "overvoltage"}, {"bus_id": 8, "vm_pu": 1.09, "va_deg": -13.874739741884722, "is_violation": true, "violation_type": "overvoltage"}, {"bus_id": 9, "vm_pu": 1.0560021816455771, "va_deg": -15.43181075920701, "is_violation": true, "violation_type": "overvoltage"}, {"bus_id": 10, "vm_pu": 1.0515822565757047, "va_deg": -15.564076912611247, "is_violation": true, "violation_type": "overvoltage"}, {"bus_id": 11, "vm_pu": 1.0570288335666456, "va_deg": -15.262930173229945, "is_violation": true, "violation_type": "overvoltage"}, {"bus_id": 12, "vm_pu": 1.0548603245854884, "va_deg": -15.553535248448023, "is_violation": true, "violation_type": "overvoltage"}, {"bus_id": 13, "vm_pu": 1.050565736348911, "va_deg": -15.616875989713927, "is_violation": true, "violation_type": "overvoltage"}, {"bus_id": 14, "vm_pu": 1.0367759220222732, "va_deg": -16.45050958972982, "is_violation": false, "violation_type": null}], "line_flows": [{"line_id": 0, "from_bus": 1, "to_bus": 2, "p_from_mw": 168.7125151600731, "q_from_mvar": -23.126061202798674, "loading_percent": 1.6227380156869722, "is_violation": false}, {"line_id": 1, "from_bus": 1, "to_bus": 5, "p_from_mw": 79.2834432860273, "q_from_mvar": 3.7253875651862285, "loading_percent": 0.7564495962411221, "is_violation": false}, {"line_id": 2, "from_bus": 2, "to_bus": 3, "p_from_mw": 78.90145624306058, "q_from_mvar": 3.0351871748854644, "loading_percent": 0.7632285879516355, "is_violation": false}, {"line_id": 3, "from_bus": 2, "to_bus": 4, "p_from_mw": 57.77921654412078, "q_from_mvar": -1.7539267920565371, "loading_percent": 0.5587533828743811, "is_violation": false}, {"line_id": 4, "from_bus": 2, "to_bus": 5, "p_from_mw": 42.23906710446672, "q_from_mvar": 1.2090730652771657, "loading_percent": 0.40987281809161313, "is_violation": false}, {"line_id": 5, "from_bus": 3, "to_bus": 4, "p_from_mw": -27.348494227043556, "q_from_mvar": 6.464293072726258, "loading_percent": 0.2840303996524028, "is_violation": false}, {"line_id": 6, "from_bus": 4, "to_bus": 5, "p_from_mw": -64.82441221826053, "q_from_mvar": 17.29601424904865, "loading_percent": 0.6661254976031283, "is_violation": false}, {"line_id": 7, "from_bus": 6, "to_bus": 11, "p_from_mw": 7.418597000694861, "q_from_mvar": 3.464592698277833, "loading_percent": 0.077293814347535, "is_violation": false}, {"line_id": 8, "from_bus": 6, "to_bus": 12, "p_from_mw": 7.943674241630173, "q_from_mvar": 2.566913616176083, "loading_percent": 0.07880783457878326, "is_violation": false}, {"line_id": 9, "from_bus": 6, "to_bus": 13, "p_from_mw": 17.681939500218697, "q_from_mvar": 7.098835537592457, "loading_percent": 0.17987090880864415, "is_violation": false}, {"line_id": 10, "from_bus": 9, "to_bus": 10, "p_from_mw": 4.47958842589107, "q_from_mvar": 3.8407719960444773, "loading_percent": 0.056442131943831374, "is_violation": false}, {"line_id": 11, "from_bus": 9, "to_bus": 14, "p_from_mw": 8.811782850328193, "q_from_mvar": 3.430489741718332, "loading_percent": 0.09044968673613023, "is_violation": false}, {"line_id": 12, "from_bus": 10, "to_bus": 11, "p_from_mw": -3.6467237924533213, "q_from_mvar": -1.416167675035592, "loading_percent": 0.03757732078230271, "is_violation": false}, {"line_id": 13, "from_bus": 12, "to_bus": 13, "p_from_mw": 1.4036380710173393, "q_from_mvar": 0.7154045940428723, "loading_percent": 0.015085893871772253, "is_violation": false}, {"line_id": 14, "from_bus": 13, "to_bus": 14, "p_from_mw": 5.328791995444989, "q_from_mvar": 1.5786127336949476, "loading_percent": 0.0534363474012295, "is_violation": false}, {"line_id": 100000, "from_bus": 4, "to_bus": 7, "p_from_mw": 27.687390464147686, "q_from_mvar": -9.836131163817585, "loading_percent": 0.2917262781494429, "is_violation": false}, {"line_id": 100001, "from_bus": 4, "to_bus": 9, "p_from_mw": 15.858052633762307, "q_from_mvar": -0.5161815183703203, "loading_percent": 0.1575303196921103, "is_violation": false}, {"line_id": 100002, "from_bus": 5, "to_bus": 6, "p_from_mw": 44.08904644379974, "q_from_mvar": 12.292079086456884, "loading_percent": 0.45364715049834514, "is_violation": false}, {"line_id": 100003, "from_bus": 7, "to_bus": 8, "p_from_mw": 1.8405893669233016e-14, "q_from_mvar": -17.1786594227708, "loading_percent": 0.1634696115493456, "is_violation": false}, {"line_id": 100004, "from_bus": 7, "to_bus": 9, "p_from_mw": 27.687390463747924, "q_from_mvar": 5.674149040650371, "loading_percent": 0.2689449579917696, "is_violation": false}], "total_generation_mw": 286.9795103477809, "total_load_mw": 271.9322468585065, "total_loss_mw": 15.047263495084183, "voltage_violations": [{"bus_id": 1, "vm_pu": 1.06, "va_deg": 0.0, "is_violation": true, "violation_type": "overvoltage"}, {"bus_id": 6, "vm_pu": 1.07, "va_deg": -14.682125021039717, "is_violation": true, "violation_type": "overvoltage"}, {"bus_id": 7, "vm_pu": 1.061492779646327, "va_deg": -13.87473974188472, "is_violation": true, "violation_type": "overvoltage"}, {"bus_id": 8, "vm_pu": 1.09, "va_deg": -13.874739741884722, "is_violation": true, "violation_type": "overvoltage"}, {"bus_id": 9, "vm_pu": 1.0560021816455771, "va_deg": -15.43181075920701, "is_violation": true, "violation_type": "overvoltage"}, {"bus_id": 10, "vm_pu": 1.0515822565757047, "va_deg": -15.564076912611247, "is_violation": true, "violation_type": "overvoltage"}, {"bus_id": 11, "vm_pu": 1.0570288335666456, "va_deg": -15.262930173229945, "is_violation": true, "violation_type": "overvoltage"}, {"bus_id": 12, "vm_pu": 1.0548603245854884, "va_deg": -15.553535248448023, "is_violation": true, "violation_type": "overvoltage"}, {"bus_id": 13, "vm_pu": 1.050565736348911, "va_deg": -15.616875989713927, "is_violation": true, "violation_type": "overvoltage"}], "thermal_violations": [], "summary_text": "", "solver_backend": "pandapower", "llm_prompt": null, "llm_response": null}

--- round 4 ---
[assistant]   (3786 in / 347 out tokens, 24.0 s)
(no text)
tool_call  modify_load(bus_id=14, p_mw=17.2, q_mvar=5.0)
[tool modify_load]   (gate: pass)
{"case_name": "case14", "converged": true, "bus_voltages": [{"bus_id": 1, "vm_pu": 1.06, "va_deg": 0.0, "is_violation": true, "violation_type": "overvoltage"}, {"bus_id": 2, "vm_pu": 1.045, "va_deg": -5.452710360098553, "is_violation": false, "violation_type": null}, {"bus_id": 3, "vm_pu": 1.01, "va_deg": -13.87747156984853, "is_violation": false, "violation_type": null}, {"bus_id": 4, "vm_pu": 1.0167286117259735, "va_deg": -11.036841943718983, "is_violation": false, "violation_type": null}, {"bus_id": 5, "vm_pu": 1.0185272434505026, "va_deg": -9.387006243674886, "is_violation": false, "violation_type": null}, {"bus_id": 6, "vm_pu": 1.07, "va_deg": -15.02479830544018, "is_violation": true, "violation_type": "overvoltage"}, {"bus_id": 7, "vm_pu": 1.0609035960455115, "va_deg": -14.172423242044403, "is_violation": true, "violation_type": "overvoltage"}, {"bus_id": 8, "vm_pu": 1.0899999999999999, "va_deg": -14.172423242044404, "is_violation": true, "violation_type": "overvoltage"}, {"bus_id": 9, "vm_pu": 1.0551821635636958, "va_deg": -15.796979657998776, "is_violation": true, "violation_type": "overvoltage"}, {"bus_id": 10, "vm_pu": 1.05089603373791, "va_deg": -15.925138112430865, "is_violation": true, "violation_type": "overvoltage"}, {"bus_id": 11, "vm_pu": 1.0566705487287182, "va_deg": -15.614523728103709, "is_violation": true, "violation_type": "overvoltage"}, {"bus_id": 12, "vm_pu": 1.054505088369983, "va_deg": -15.93177069993922, "is_violation": true, "violation_type": "overvoltage"}, {"bus_id": 13, "vm_pu": 1.0496182030689185, "va_deg": -16.022771550175243, "is_violation": false, "violation_type": null}, {"bus_id": 14, "vm_pu": 1.033042520241059, "va_deg": -17.08314505522336, "is_violation": false, "violation_type": null}], "line_flows": [{"line_id": 0, "from_bus": 1, "to_bus": 2, "p_from_mw": 171.11096954288394, "q_from_mvar": -23.66754847378698, "loading_percent": 1.646083728616579, "is_violation": false}, {"line_id": 1, "from_bus": 1, "to_bus": 5, "p_from_mw": 80.56758807074003, "q_from_mvar": 3.910849124539542, "loading_percent": 0.7687412486080558, "is_violation": false}, {"line_id": 2, "from_bus": 2, "to_bus": 3, "p_from_mw": 79.38816113107971, "q_from_mvar": 2.9929928776455346, "loading_percent": 0.7679141668291749, "is_violation": false}, {"line_id": 3, "from_bus": 2, "to_bus": 4, "p_from_mw": 58.72246521833204, "q_from_mvar": -1.5943617980232048, "loading_percent": 0.5678227763629629, "is_violation": false}, {"line_id": 4, "from_bus": 2, "to_bus": 5, "p_from_mw": 43.063170567018425, "q_from_mvar": 1.3589224825325086, "loading_percent": 0.41792959305497723, "is_violation": false}, {"line_id": 5, "from_bus": 3, "to_bus": 4, "p_from_mw": -26.89474361702381, "q_from_mvar": 6.648821358166833, "loading_percent": 0.2801900392417084, "is_violation": false}, {"line_id": 6, "from_bus": 4, "to_bus": 5, "p_from_mw": -65.29394169192625, "q_from_mvar": 17.37666561980644, "loading_percent": 0.6712617731086155, "is_violation": false}, {"line_id": 7, "from_bus": 6, "to_bus": 11, "p_from_mw": 7.564365506102925, "q_from_mvar": 3.5886209545415992, "loading_percent": 0.07903751947393989, "is_violation": false}, {"line_id": 8, "from_bus": 6, "to_bus": 12, "p_from_mw": 8.223885560589897, "q_from_mvar": 2.585098654606798, "loading_percent": 0.08138031243088877, "is_violation": false}, {"line_id": 9, "from_bus": 6, "to_bus": 13, "p_from_mw": 18.748651603814594, "q_from_mvar": 7.3513850541987, "loading_percent": 0.1901103670014614, "is_violation": false}, {"line_id": 10, "from_bus": 9, "to_bus": 10, "p_from_mw": 4.33681359932554, "q_from_mvar": 3.722936492051068, "loading_percent": 0.05471419603657015, "is_violation": false}, {"line_id": 11, "from_bus": 9, "to_bus": 14, "p_from_mw": 10.776999940569713, "q_from_mvar": 3.6753238887900928, "loading_percent": 0.10900000747788177, "is_violation": false}, {"line_id": 12, "from_bus": 10, "to_bus": 11, "p_from_mw": -3.7888997995762703, "q_from_mvar": -1.5324124766811862, "loading_percent": 0.039284021411393436, "is_violation": false}, {"line_id": 13, "from_bus": 12, "to_bus": 13, "p_from_mw": 1.678885300172497, "q_from_mvar": 0.723257976676888, "loading_percent": 0.01751070456337414, "is_violation": false}, {"line_id": 14, "from_bus": 13, "to_bus": 14, "p_from_mw": 6.644478295101972, "q_from_mvar": 1.7890977172018792, "loading_percent": 0.06622062433634851, "is_violation": false}, {"line_id": 100000, "from_bus": 4, "to_bus": 7, "p_from_mw": 28.84862847924531, "q_from_mvar": -9.801182975258975, "loading_percent": 0.302695154065173, "is_violation": false}, {"line_id": 100001, "from_bus": 4, "to_bus": 9, "p_from_mw": 16.519256882124342, "q_from_mvar": -0.43147667785192917, "loading_percent": 0.16417172509922165, "is_violation": false}, {"line_id": 100002, "from_bus": 5, "to_bus": 6, "p_from_mw": 45.58173837145637, "q_from_mvar": 12.148721152406342, "loading_percent": 0.46782680556533157, "is_violation": false}, {"line_id": 100003, "from_bus": 7, "to_bus": 8, "p_from_mw": 2.6430657956640042e-14, "q_from_mvar": -17.523973651609122, "loading_percent": 0.1668481806683829, "is_violation": false}, {"line_id": 100004, "from_bus": 7, "to_bus": 9, "p_from_mw": 28.84862847885573, "q_from_mvar": 5.926591034488389, "loading_percent": 0.28040809259505917, "is_violation": false}], "total_generation_mw": 290.66210951530445, "total_load_mw": 275.141429955464, "total_loss_mw": 15.52067956672887, "voltage_violations": [{"bus_id": 1, "vm_pu": 1.06, "va_deg": 0.0, "is_violation": true, "violation_type": "overvoltage"}, {"bus_id": 6, "vm_pu": 1.07, "va_deg": -15.02479830544018, "is_violation": true, "violation_type": "overvoltage"}, {"bus_id": 7, "vm_pu": 1.0609035960455115, "va_deg": -14.172423242044403, "is_violation": true, "violation_type": "overvoltage"}, {"bus_id": 8, "vm_pu": 1.0899999999999999, "va_deg": -14.172423242044404, "is_violation": true, "violation_type": "overvoltage"}, {"bus_id": 9, "vm_pu": 1.0551821635636958, "va_deg": -15.796979657998776, "is_violation": true, "violation_type": "overvoltage"}, {"bus_id": 10, "vm_pu": 1.05089603373791, "va_deg": -15.925138112430865, "is_violation": true, "violation_type": "overvoltage"}, {"bus_id": 11, "vm_pu": 1.0566705487287182, "va_deg": -15.614523728103709, "is_violation": true, "violation_type": "overvoltage"}, {"bus_id": 12, "vm_pu": 1.054505088369983, "va_deg": -15.93177069993922, "is_violation": true, "violation_type": "overvoltage"}], "thermal_violations": [], "summary_text": "", "solver_backend": "pandapower", "llm_prompt": null, "llm_response": null}

--- round 5 ---
[assistant]   (6484 in / 55 out tokens, 9.2 s)
(no text)
tool_call  disconnect_line(from_bus=1, to_bus=5)
[tool disconnect_line]   (gate: pass)
{"case_name": "case14", "converged": true, "bus_voltages": [{"bus_id": 1, "vm_pu": 1.06, "va_deg": 0.0, "is_violation": true, "violation_type": "overvoltage"}, {"bus_id": 2, "vm_pu": 1.0449999999999995, "va_deg": -8.38467454612808, "is_violation": false, "violation_type": null}, {"bus_id": 3, "vm_pu": 1.0099999999999998, "va_deg": -18.41178839674085, "is_violation": false, "violation_type": null}, {"bus_id": 4, "vm_pu": 1.0075176604700453, "va_deg": -16.84829829457072, "is_violation": false, "violation_type": null}, {"bus_id": 5, "vm_pu": 1.005205068958371, "va_deg": -16.10307548882228, "is_violation": false, "violation_type": null}, {"bus_id": 6, "vm_pu": 1.0700000000000003, "va_deg": -21.5565112306693, "is_violation": true, "violation_type": "overvoltage"}, {"bus_id": 7, "vm_pu": 1.0570611564222097, "va_deg": -20.169770405921522, "is_violation": true, "violation_type": "overvoltage"}, {"bus_id": 8, "vm_pu": 1.0900000000000003, "va_deg": -20.169770405921522, "is_violation": true, "violation_type": "overvoltage"}, {"bus_id": 9, "vm_pu": 1.0520093564704343, "va_deg": -21.88011114653148, "is_violation": true, "violation_type": "overvoltage"}, {"bus_id": 10, "vm_pu": 1.0483457243926073, "va_deg": -22.086298361908835, "is_violation": false, "violation_type": null}, {"bus_id": 11, "vm_pu": 1.0554503630910237, "va_deg": -21.95619190453255, "is_violation": true, "violation_type": "overvoltage"}, {"bus_id": 12, "vm_pu": 1.054202806206246, "va_deg": -22.435021871643684, "is_violation": true, "violation_type": "overvoltage"}, {"bus_id": 13, "vm_pu": 1.0492288467433246, "va_deg": -22.490986830543, "is_violation": false, "violation_type": null}, {"bus_id": 14, "vm_pu": 1.0310592173141464, "va_deg": -23.337611778239417, "is_violation": false, "violation_type": null}], "line_flows": [{"line_id": 0, "from_bus": 1, "to_bus": 2, "p_from_mw": 260.40152608797996, "q_from_mvar": -41.37431871609872, "loading_percent": 2.5125591027205836, "is_violation": false}, {"line_id": 1, "from_bus": 1, "to_bus": 5, "p_from_mw": 0.0, "q_from_mvar": 0.0, "loading_percent": 0.0, "is_violation": false}, {"line_id": 2, "from_bus": 2, "to_bus": 3, "p_from_mw": 93.85689262469286, "q_from_mvar": 1.9490981950188293, "loading_percent": 0.9074199276465988, "is_violation": false}, {"line_id": 3, "from_bus": 2, "to_bus": 4, "p_from_mw": 87.81274128103706, "q_from_mvar": -2.079229336815525, "loading_percent": 0.8490392327002761, "is_violation": false}, {"line_id": 4, "from_bus": 2, "to_bus": 5, "p_from_mw": 81.96849142261762, "q_from_mvar": 0.6536442017635806, "loading_percent": 0.7923357746853404, "is_violation": false}, {"line_id": 5, "from_bus": 3, "to_bus": 4, "p_from_mw": -13.500252993324105, "q_from_mvar": 6.323998498161461, "loading_percent": 0.15492253178012702, "is_violation": false}, {"line_id": 6, "from_bus": 4, "to_bus": 5, "p_from_mw": -26.771186070491016, "q_from_mvar": 14.22368583704581, "loading_percent": 0.3039290215658407, "is_violation": false}, {"line_id": 7, "from_bus": 6, "to_bus": 11, "p_from_mw": 6.274238995765595, "q_from_mvar": 4.8448046217874134, "loading_percent": 0.0748329591946725, "is_violation": false}, {"line_id": 8, "from_bus": 6, "to_bus": 12, "p_from_mw": 8.092338865231465, "q_from_mvar": 2.7713130593712414, "loading_percent": 0.08074879557172548, "is_violation": false}, {"line_id": 9, "from_bus": 6, "to_bus": 13, "p_from_mw": 18.107612053660297, "q_from_mvar": 7.980551288263421, "loading_percent": 0.18680495960100718, "is_violation": false}, {"line_id": 10, "from_bus": 9, "to_bus": 10, "p_from_mw": 5.620551605862868, "q_from_mvar": 2.4537502600757026, "loading_percent": 0.058885108049218454, "is_violation": false}, {"line_id": 11, "from_bus": 9, "to_bus": 14, "p_from_mw": 11.545417207235884, "q_from_mvar": 2.8535002007372525, "loading_percent": 0.1141905010796918, "is_violation": false}, {"line_id": 12, "from_bus": 10, "to_bus": 11, "p_from_mw": -2.506638997434359, "q_from_mvar": -2.805522751931545, "loading_percent": 0.03624957295660076, "is_violation": false}, {"line_id": 13, "from_bus": 12, "to_bus": 13, "p_from_mw": 1.5485720037168305, "q_from_mvar": 0.9120394285956257, "loading_percent": 0.017220056896152615, "is_violation": false}, {"line_id": 14, "from_bus": 13, "to_bus": 14, "p_from_mw": 5.881421369296437, "q_from_mvar": 2.623149983440026, "loading_percent": 0.06199722440097319, "is_violation": false}, {"line_id": 100000, "from_bus": 4, "to_bus": 7, "p_from_mw": 30.170538336234344, "q_from_mvar": -12.36682069948995, "loading_percent": 0.3269034830572543, "is_violation": false}, {"line_id": 100001, "from_bus": 4, "to_bus": 9, "p_from_mw": 17.249502297019227, "q_from_mvar": -1.5339133988258762, "loading_percent": 0.17361973212056356, "is_violation": false}, {"line_id": 100002, "from_bus": 5, "to_bus": 6, "p_from_mw": 43.51902560921355, "q_from_mvar": 5.730085710561936, "loading_percent": 0.44108433357263443, "is_violation": false}, {"line_id": 100003, "from_bus": 7, "to_bus": 8, "p_from_mw": -7.625689564429233e-15, "q_from_mvar": -19.766319661396224, "loading_percent": 0.18888197087417147, "is_violation": false}, {"line_id": 100004, "from_bus": 7, "to_bus": 9, "p_from_mw": 30.170538336183267, "q_from_mvar": 5.304505052694732, "loading_percent": 0.2927241110238317, "is_violation": false}], "total_generation_mw": 299.3850779896604, "total_load_mw": 275.141429955464, "total_loss_mw": 24.243648063913223, "voltage_violations": [{"bus_id": 1, "vm_pu": 1.06, "va_deg": 0.0, "is_violation": true, "violation_type": "overvoltage"}, {"bus_id": 6, "vm_pu": 1.0700000000000003, "va_deg": -21.5565112306693, "is_violation": true, "violation_type": "overvoltage"}, {"bus_id": 7, "vm_pu": 1.0570611564222097, "va_deg": -20.169770405921522, "is_violation": true, "violation_type": "overvoltage"}, {"bus_id": 8, "vm_pu": 1.0900000000000003, "va_deg": -20.169770405921522, "is_violation": true, "violation_type": "overvoltage"}, {"bus_id": 9, "vm_pu": 1.0520093564704343, "va_deg": -21.88011114653148, "is_violation": true, "violation_type": "overvoltage"}, {"bus_id": 11, "vm_pu": 1.0554503630910237, "va_deg": -21.95619190453255, "is_violation": true, "violation_type": "overvoltage"}, {"bus_id": 12, "vm_pu": 1.054202806206246, "va_deg": -22.435021871643684, "is_violation": true, "violation_type": "overvoltage"}], "thermal_violations": [], "summary_text": "", "solver_backend": "pandapower", "llm_prompt": null, "llm_response": null}

--- round 6 ---
[assistant]   (9125 in / 25 out tokens, 5.0 s)
(no text)
tool_call  reconnect_line(from_bus=1, to_bus=5)
[tool reconnect_line]   (gate: pass)
{"case_name": "case14", "converged": true, "bus_voltages": [{"bus_id": 1, "vm_pu": 1.06, "va_deg": 0.0, "is_violation": true, "violation_type": "overvoltage"}, {"bus_id": 2, "vm_pu": 1.045, "va_deg": -5.452710360098553, "is_violation": false, "violation_type": null}, {"bus_id": 3, "vm_pu": 1.01, "va_deg": -13.87747156984853, "is_violation": false, "violation_type": null}, {"bus_id": 4, "vm_pu": 1.0167286117259735, "va_deg": -11.036841943718983, "is_violation": false, "violation_type": null}, {"bus_id": 5, "vm_pu": 1.0185272434505026, "va_deg": -9.387006243674886, "is_violation": false, "violation_type": null}, {"bus_id": 6, "vm_pu": 1.07, "va_deg": -15.02479830544018, "is_violation": true, "violation_type": "overvoltage"}, {"bus_id": 7, "vm_pu": 1.0609035960455115, "va_deg": -14.172423242044403, "is_violation": true, "violation_type": "overvoltage"}, {"bus_id": 8, "vm_pu": 1.0899999999999999, "va_deg": -14.172423242044404, "is_violation": true, "violation_type": "overvoltage"}, {"bus_id": 9, "vm_pu": 1.0551821635636958, "va_deg": -15.796979657998776, "is_violation": true, "violation_type": "overvoltage"}, {"bus_id": 10, "vm_pu": 1.05089603373791, "va_deg": -15.925138112430865, "is_violation": true, "violation_type": "overvoltage"}, {"bus_id": 11, "vm_pu": 1.0566705487287182, "va_deg": -15.614523728103709, "is_violation": true, "violation_type": "overvoltage"}, {"bus_id": 12, "vm_pu": 1.054505088369983, "va_deg": -15.93177069993922, "is_violation": true, "violation_type": "overvoltage"}, {"bus_id": 13, "vm_pu": 1.0496182030689185, "va_deg": -16.022771550175243, "is_violation": false, "violation_type": null}, {"bus_id": 14, "vm_pu": 1.033042520241059, "va_deg": -17.08314505522336, "is_violation": false, "violation_type": null}], "line_flows": [{"line_id": 0, "from_bus": 1, "to_bus": 2, "p_from_mw": 171.11096954288394, "q_from_mvar": -23.66754847378698, "loading_percent": 1.646083728616579, "is_violation": false}, {"line_id": 1, "from_bus": 1, "to_bus": 5, "p_from_mw": 80.56758807074003, "q_from_mvar": 3.910849124539542, "loading_percent": 0.7687412486080558, "is_violation": false}, {"line_id": 2, "from_bus": 2, "to_bus": 3, "p_from_mw": 79.38816113107971, "q_from_mvar": 2.9929928776455346, "loading_percent": 0.7679141668291749, "is_violation": false}, {"line_id": 3, "from_bus": 2, "to_bus": 4, "p_from_mw": 58.72246521833204, "q_from_mvar": -1.5943617980232048, "loading_percent": 0.5678227763629629, "is_violation": false}, {"line_id": 4, "from_bus": 2, "to_bus": 5, "p_from_mw": 43.063170567018425, "q_from_mvar": 1.3589224825325086, "loading_percent": 0.41792959305497723, "is_violation": false}, {"line_id": 5, "from_bus": 3, "to_bus": 4, "p_from_mw": -26.89474361702381, "q_from_mvar": 6.648821358166833, "loading_percent": 0.2801900392417084, "is_violation": false}, {"line_id": 6, "from_bus": 4, "to_bus": 5, "p_from_mw": -65.29394169192625, "q_from_mvar": 17.37666561980644, "loading_percent": 0.6712617731086155, "is_violation": false}, {"line_id": 7, "from_bus": 6, "to_bus": 11, "p_from_mw": 7.564365506102925, "q_from_mvar": 3.5886209545415992, "loading_percent": 0.07903751947393989, "is_violation": false}, {"line_id": 8, "from_bus": 6, "to_bus": 12, "p_from_mw": 8.223885560589897, "q_from_mvar": 2.585098654606798, "loading_percent": 0.08138031243088877, "is_violation": false}, {"line_id": 9, "from_bus": 6, "to_bus": 13, "p_from_mw": 18.748651603814594, "q_from_mvar": 7.3513850541987, "loading_percent": 0.1901103670014614, "is_violation": false}, {"line_id": 10, "from_bus": 9, "to_bus": 10, "p_from_mw": 4.33681359932554, "q_from_mvar": 3.722936492051068, "loading_percent": 0.05471419603657015, "is_violation": false}, {"line_id": 11, "from_bus": 9, "to_bus": 14, "p_from_mw": 10.776999940569713, "q_from_mvar": 3.6753238887900928, "loading_percent": 0.10900000747788177, "is_violation": false}, {"line_id": 12, "from_bus": 10, "to_bus": 11, "p_from_mw": -3.7888997995762703, "q_from_mvar": -1.5324124766811862, "loading_percent": 0.039284021411393436, "is_violation": false}, {"line_id": 13, "from_bus": 12, "to_bus": 13, "p_from_mw": 1.678885300172497, "q_from_mvar": 0.723257976676888, "loading_percent": 0.01751070456337414, "is_violation": false}, {"line_id": 14, "from_bus": 13, "to_bus": 14, "p_from_mw": 6.644478295101972, "q_from_mvar": 1.7890977172018792, "loading_percent": 0.06622062433634851, "is_violation": false}, {"line_id": 100000, "from_bus": 4, "to_bus": 7, "p_from_mw": 28.84862847924531, "q_from_mvar": -9.801182975258975, "loading_percent": 0.302695154065173, "is_violation": false}, {"line_id": 100001, "from_bus": 4, "to_bus": 9, "p_from_mw": 16.519256882124342, "q_from_mvar": -0.43147667785192917, "loading_percent": 0.16417172509922165, "is_violation": false}, {"line_id": 100002, "from_bus": 5, "to_bus": 6, "p_from_mw": 45.58173837145637, "q_from_mvar": 12.148721152406342, "loading_percent": 0.46782680556533157, "is_violation": false}, {"line_id": 100003, "from_bus": 7, "to_bus": 8, "p_from_mw": 2.6430657956640042e-14, "q_from_mvar": -17.523973651609122, "loading_percent": 0.1668481806683829, "is_violation": false}, {"line_id": 100004, "from_bus": 7, "to_bus": 9, "p_from_mw": 28.84862847885573, "q_from_mvar": 5.926591034488389, "loading_percent": 0.28040809259505917, "is_violation": false}], "total_generation_mw": 290.66210951530445, "total_load_mw": 275.141429955464, "total_loss_mw": 15.52067956672887, "voltage_violations": [{"bus_id": 1, "vm_pu": 1.06, "va_deg": 0.0, "is_violation": true, "violation_type": "overvoltage"}, {"bus_id": 6, "vm_pu": 1.07, "va_deg": -15.02479830544018, "is_violation": true, "violation_type": "overvoltage"}, {"bus_id": 7, "vm_pu": 1.0609035960455115, "va_deg": -14.172423242044403, "is_violation": true, "violation_type": "overvoltage"}, {"bus_id": 8, "vm_pu": 1.0899999999999999, "va_deg": -14.172423242044404, "is_violation": true, "violation_type": "overvoltage"}, {"bus_id": 9, "vm_pu": 1.0551821635636958, "va_deg": -15.796979657998776, "is_violation": true, "violation_type": "overvoltage"}, {"bus_id": 10, "vm_pu": 1.05089603373791, "va_deg": -15.925138112430865, "is_violation": true, "violation_type": "overvoltage"}, {"bus_id": 11, "vm_pu": 1.0566705487287182, "va_deg": -15.614523728103709, "is_violation": true, "violation_type": "overvoltage"}, {"bus_id": 12, "vm_pu": 1.054505088369983, "va_deg": -15.93177069993922, "is_violation": true, "violation_type": "overvoltage"}], "thermal_violations": [], "summary_text": "", "solver_backend": "pandapower", "llm_prompt": null, "llm_response": null}

--- round 7 ---
[assistant]   (11814 in / 33 out tokens, 9.1 s)
(no text)
tool_call  run_n1_contingency(top_k=8, criteria="min_voltage", max_candidates=0)
[tool run_n1_contingency]   (gate: not applied)
{"plot_type": "n1_ranking", "figure_json": "<plotly figure, 16 KB, omitted; see the .json trace>", "n1_report": {"case_name": "case14", "base_converged": true, "top_k": 8, "criteria": "min_voltage", "results": [{"branch_id": 100002, "branch_type": "trafo", "from_bus": 5, "to_bus": 6, "converged": true, "n_voltage_violations": 9, "n_thermal_violations": 0, "delta_voltage_violations": 1, "delta_thermal_violations": 0, "worst_vm_pu": 1.0099999999999998, "worst_loading_percent": 1.6935348845603098, "score": 179900.0, "notes": ""}, {"branch_id": 11, "branch_type": "line", "from_bus": 9, "to_bus": 14, "converged": true, "n_voltage_violations": 8, "n_thermal_violations": 0, "delta_voltage_violations": 0, "delta_thermal_violations": 0, "worst_vm_pu": 0.9903807155515673, "worst_loading_percent": 1.6463571760537237, "score": 170096.19284448435, "notes": ""}, {"branch_id": 5, "branch_type": "line", "from_bus": 3, "to_bus": 4, "converged": true, "n_voltage_violations": 8, "n_thermal_violations": 0, "delta_voltage_violations": 0, "delta_thermal_violations": 0, "worst_vm_pu": 1.01, "worst_loading_percent": 1.7106557100980369, "score": 169900.0, "notes": ""}, {"branch_id": 13, "branch_type": "line", "from_bus": 12, "to_bus": 13, "converged": true, "n_voltage_violations": 8, "n_thermal_violations": 0, "delta_voltage_violations": 0, "delta_thermal_violations": 0, "worst_vm_pu": 1.01, "worst_loading_percent": 1.6462198834798953, "score": 169900.0, "notes": ""}, {"branch_id": 14, "branch_type": "line", "from_bus": 13, "to_bus": 14, "converged": true, "n_voltage_violations": 8, "n_thermal_violations": 0, "delta_voltage_violations": 0, "delta_thermal_violations": 0, "worst_vm_pu": 1.01, "worst_loading_percent": 1.649663363128491, "score": 169900.0, "notes": ""}, {"branch_id": 1, "branch_type": "line", "from_bus": 1, "to_bus": 5, "converged": true, "n_voltage_violations": 7, "n_thermal_violations": 0, "delta_voltage_violations": -1, "delta_thermal_violations": 0, "worst_vm_pu": 1.005205068958371, "worst_loading_percent": 2.5125591027205836, "score": 159947.9493104163, "notes": ""}, {"branch_id": 2, "branch_type": "line", "from_bus": 2, "to_bus": 3, "converged": true, "n_voltage_violations": 7, "n_thermal_violations": 0, "delta_voltage_violations": -1, "delta_thermal_violations": 0, "worst_vm_pu": 1.0088194319423576, "worst_loading_percent": 1.564434335232806, "score": 159911.80568057642, "notes": ""}, {"branch_id": 4, "branch_type": "line", "from_bus": 2, "to_bus": 5, "converged": true, "n_voltage_violations": 7, "n_thermal_violations": 0, "delta_voltage_violations": -1, "delta_thermal_violations": 0, "worst_vm_pu": 1.008946046670553, "worst_loading_percent": 1.4972331096421585, "score": 159910.53953329445, "notes": ""}], "summary_text": "N-1 completed over 20 branches. Worst outage: 5-6 (trafo), V violations=9 (delta=1), thermal violations=0 (delta=0)."}}

--- round 8 ---
[assistant]   (20188 in / 693 out tokens, 22.1 s)
Case14 was updated with bus 14 active load set to 17.2 MW, line 1–5 was disconnected and successfully reconnected, and the final N‑1 analysis completed over all 20 branches with all eight reported contingencies converging.

**Key numbers — final intact network**
- Total load: **275.141 MW**
- Total generation: **290.662 MW**
- Total active-power losses: **15.521 MW**
- Voltage range: **1.0100–1.0900 pu**
- Bus 14 reactive load was retained at **5.0 MVAr**, since only active load was requested to change.

**Eight worst N‑1 outages, using the tool’s `min_voltage` ranking**

| Rank | Outaged branch | Type | Minimum voltage | Voltage violations | Thermal violations | Worst loading |
|---:|---|---|---:|---:|---:|---:|
| 1 | 5–6 | Transformer | 1.0100 pu | 9 | 0 | 1.694% |
| 2 | 9–14 | Line | **0.9904 pu** | 8 | 0 | 1.646% |
| 3 | 3–4 | Line | 1.0100 pu | 8 | 0 | 1.711% |
| 4 | 12–13 | Line | 1.0100 pu | 8 | 0 | 1.646% |
| 5 | 13–14 | Line | 1.0100 pu | 8 | 0 | 1.650% |
| 6 | 1–5 | Line | 1.0052 pu | 7 | 0 | 2.513% |
| 7 | 2–3 | Line | 1.0088 pu | 7 | 0 | 1.564% |
| 8 | 2–5 | Line | 1.0089 pu | 7 | 0 | 1.497% |

**Violations**
- Final intact case: **8 overvoltage violations**, at buses **1, 6, 7, 8, 9, 10, 11, and 12**.
- Final intact case: **no thermal violations**.
- The **9–14 outage** produced the lowest contingency voltage, **0.9904 pu**.
- The **5–6 transformer outage** increased voltage violations from 8 to 9.

**Suggested next step:** Evaluate voltage-control remedial actions, prioritizing the 5–6 transformer and 9–14 line contingencies.

--- round 8 ---
[assistant]   (20902 in / 69 out tokens, 15.5 s)
(no text)
tool_call  run_powerflow()
[tool run_powerflow]   (gate: pass)
{"case_name": "case14", "converged": true, "bus_voltages": [{"bus_id": 1, "vm_pu": 1.06, "va_deg": 0.0, "is_violation": true, "violation_type": "overvoltage"}, {"bus_id": 2, "vm_pu": 1.045, "va_deg": -5.452710360098553, "is_violation": false, "violation_type": null}, {"bus_id": 3, "vm_pu": 1.01, "va_deg": -13.87747156984853, "is_violation": false, "violation_type": null}, {"bus_id": 4, "vm_pu": 1.0167286117259735, "va_deg": -11.036841943718983, "is_violation": false, "violation_type": null}, {"bus_id": 5, "vm_pu": 1.0185272434505026, "va_deg": -9.387006243674886, "is_violation": false, "violation_type": null}, {"bus_id": 6, "vm_pu": 1.07, "va_deg": -15.02479830544018, "is_violation": true, "violation_type": "overvoltage"}, {"bus_id": 7, "vm_pu": 1.0609035960455115, "va_deg": -14.172423242044403, "is_violation": true, "violation_type": "overvoltage"}, {"bus_id": 8, "vm_pu": 1.0899999999999999, "va_deg": -14.172423242044404, "is_violation": true, "violation_type": "overvoltage"}, {"bus_id": 9, "vm_pu": 1.0551821635636958, "va_deg": -15.796979657998776, "is_violation": true, "violation_type": "overvoltage"}, {"bus_id": 10, "vm_pu": 1.05089603373791, "va_deg": -15.925138112430865, "is_violation": true, "violation_type": "overvoltage"}, {"bus_id": 11, "vm_pu": 1.0566705487287182, "va_deg": -15.614523728103709, "is_violation": true, "violation_type": "overvoltage"}, {"bus_id": 12, "vm_pu": 1.054505088369983, "va_deg": -15.93177069993922, "is_violation": true, "violation_type": "overvoltage"}, {"bus_id": 13, "vm_pu": 1.0496182030689185, "va_deg": -16.022771550175243, "is_violation": false, "violation_type": null}, {"bus_id": 14, "vm_pu": 1.033042520241059, "va_deg": -17.08314505522336, "is_violation": false, "violation_type": null}], "line_flows": [{"line_id": 0, "from_bus": 1, "to_bus": 2, "p_from_mw": 171.11096954288394, "q_from_mvar": -23.66754847378698, "loading_percent": 1.646083728616579, "is_violation": false}, {"line_id": 1, "from_bus": 1, "to_bus": 5, "p_from_mw": 80.56758807074003, "q_from_mvar": 3.910849124539542, "loading_percent": 0.7687412486080558, "is_violation": false}, {"line_id": 2, "from_bus": 2, "to_bus": 3, "p_from_mw": 79.38816113107971, "q_from_mvar": 2.9929928776455346, "loading_percent": 0.7679141668291749, "is_violation": false}, {"line_id": 3, "from_bus": 2, "to_bus": 4, "p_from_mw": 58.72246521833204, "q_from_mvar": -1.5943617980232048, "loading_percent": 0.5678227763629629, "is_violation": false}, {"line_id": 4, "from_bus": 2, "to_bus": 5, "p_from_mw": 43.063170567018425, "q_from_mvar": 1.3589224825325086, "loading_percent": 0.41792959305497723, "is_violation": false}, {"line_id": 5, "from_bus": 3, "to_bus": 4, "p_from_mw": -26.89474361702381, "q_from_mvar": 6.648821358166833, "loading_percent": 0.2801900392417084, "is_violation": false}, {"line_id": 6, "from_bus": 4, "to_bus": 5, "p_from_mw": -65.29394169192625, "q_from_mvar": 17.37666561980644, "loading_percent": 0.6712617731086155, "is_violation": false}, {"line_id": 7, "from_bus": 6, "to_bus": 11, "p_from_mw": 7.564365506102925, "q_from_mvar": 3.5886209545415992, "loading_percent": 0.07903751947393989, "is_violation": false}, {"line_id": 8, "from_bus": 6, "to_bus": 12, "p_from_mw": 8.223885560589897, "q_from_mvar": 2.585098654606798, "loading_percent": 0.08138031243088877, "is_violation": false}, {"line_id": 9, "from_bus": 6, "to_bus": 13, "p_from_mw": 18.748651603814594, "q_from_mvar": 7.3513850541987, "loading_percent": 0.1901103670014614, "is_violation": false}, {"line_id": 10, "from_bus": 9, "to_bus": 10, "p_from_mw": 4.33681359932554, "q_from_mvar": 3.722936492051068, "loading_percent": 0.05471419603657015, "is_violation": false}, {"line_id": 11, "from_bus": 9, "to_bus": 14, "p_from_mw": 10.776999940569713, "q_from_mvar": 3.6753238887900928, "loading_percent": 0.10900000747788177, "is_violation": false}, {"line_id": 12, "from_bus": 10, "to_bus": 11, "p_from_mw": -3.7888997995762703, "q_from_mvar": -1.5324124766811862, "loading_percent": 0.039284021411393436, "is_violation": false}, {"line_id": 13, "from_bus": 12, "to_bus": 13, "p_from_mw": 1.678885300172497, "q_from_mvar": 0.723257976676888, "loading_percent": 0.01751070456337414, "is_violation": false}, {"line_id": 14, "from_bus": 13, "to_bus": 14, "p_from_mw": 6.644478295101972, "q_from_mvar": 1.7890977172018792, "loading_percent": 0.06622062433634851, "is_violation": false}, {"line_id": 100000, "from_bus": 4, "to_bus": 7, "p_from_mw": 28.84862847924531, "q_from_mvar": -9.801182975258975, "loading_percent": 0.302695154065173, "is_violation": false}, {"line_id": 100001, "from_bus": 4, "to_bus": 9, "p_from_mw": 16.519256882124342, "q_from_mvar": -0.43147667785192917, "loading_percent": 0.16417172509922165, "is_violation": false}, {"line_id": 100002, "from_bus": 5, "to_bus": 6, "p_from_mw": 45.58173837145637, "q_from_mvar": 12.148721152406342, "loading_percent": 0.46782680556533157, "is_violation": false}, {"line_id": 100003, "from_bus": 7, "to_bus": 8, "p_from_mw": 2.6430657956640042e-14, "q_from_mvar": -17.523973651609122, "loading_percent": 0.1668481806683829, "is_violation": false}, {"line_id": 100004, "from_bus": 7, "to_bus": 9, "p_from_mw": 28.84862847885573, "q_from_mvar": 5.926591034488389, "loading_percent": 0.28040809259505917, "is_violation": false}], "total_generation_mw": 290.66210951530445, "total_load_mw": 275.141429955464, "total_loss_mw": 15.52067956672887, "voltage_violations": [{"bus_id": 1, "vm_pu": 1.06, "va_deg": 0.0, "is_violation": true, "violation_type": "overvoltage"}, {"bus_id": 6, "vm_pu": 1.07, "va_deg": -15.02479830544018, "is_violation": true, "violation_type": "overvoltage"}, {"bus_id": 7, "vm_pu": 1.0609035960455115, "va_deg": -14.172423242044403, "is_violation": true, "violation_type": "overvoltage"}, {"bus_id": 8, "vm_pu": 1.0899999999999999, "va_deg": -14.172423242044404, "is_violation": true, "violation_type": "overvoltage"}, {"bus_id": 9, "vm_pu": 1.0551821635636958, "va_deg": -15.796979657998776, "is_violation": true, "violation_type": "overvoltage"}, {"bus_id": 10, "vm_pu": 1.05089603373791, "va_deg": -15.925138112430865, "is_violation": true, "violation_type": "overvoltage"}, {"bus_id": 11, "vm_pu": 1.0566705487287182, "va_deg": -15.614523728103709, "is_violation": true, "violation_type": "overvoltage"}, {"bus_id": 12, "vm_pu": 1.054505088369983, "va_deg": -15.93177069993922, "is_violation": true, "violation_type": "overvoltage"}], "thermal_violations": [], "summary_text": "", "solver_backend": "pandapower", "llm_prompt": null, "llm_response": null}

[final answer]
The tool-call round limit was reached before an answer could be verified. No numerical result is reported. Narrow the request or split it into fewer consecutive operations.

[verification gate]   outcome: no accepted answer; the run ended with status max_rounds (the gate rejected the last candidate answer)
attempt 1: FAIL
  V1  converged              pass  residual 0
  V2  balance                pass  residual 6.89e-09
  V3  no_isolated_buses      pass  residual 0
  V4  faithfulness           pass  residual 0
  V5  currency               FAIL  residual 3
[retry message to the model]
Verification failed before this answer could be accepted. Failed condition(s):
- the answer quotes 3 number(s) from a solve made before the last network change (reconnecting the branch between bus 1 and bus 5)
Produce a corrected final answer. You may call tools again if needed, but only to inspect the current state (e.g. re-running the power flow) -- do not undo or reverse a network change the request asked for (do not reconnect a line it asked you to disconnect, do not revert a load value it asked you to set) just to reach a state that passes verification. If the requested state genuinely fails, report that failure. Do not change a number without a tool call to support it.

[status] max_rounds
